1086
C   0.70500   0.00000 -25.73053
C   1.41000   1.14071 -25.29482
C   0.70500   2.36181 -24.85911
C   2.55071   0.70500 -24.58982
C   2.55071  -0.70500 -24.58982
C   1.41000  -1.14071 -25.29482
C   0.70500  -2.36181 -24.85911
C  -0.70500   0.00000 -25.73053
C  -1.41000   1.14071 -25.29482
C  -0.70500   2.36181 -24.85911
C  -2.55071   0.70500 -24.58982
C  -2.55071  -0.70500 -24.58982
C  -1.41000  -1.14071 -25.29482
C  -0.70500  -2.36181 -24.85911
C   2.99044   1.37163 -23.43570
C   3.60323   0.70115 -22.35859
C   3.85609   1.38526 -21.15213
C   4.42815   0.70242 -20.05994
C   4.70514   1.39275 -18.86230
C   5.24975   0.70315 -17.76009
C   5.54444   1.39730 -16.56886
C   6.06935   0.70361 -15.45954
C   6.37754   1.40026 -14.27316
C   6.88766   0.70392 -13.15852
C   7.20647   1.40230 -11.97595
C   7.70507   0.70413 -10.85719
C   8.03246   1.40375  -9.67768
C   8.52185   0.70429  -8.55563
C   8.85630   1.40484  -7.37864
C   9.33815   0.70441  -6.25390
C   9.67852   1.40566  -5.07902
C  10.15410   0.70450  -3.95205
C  10.49950   1.40630  -2.77896
C  10.96977   0.70457  -1.65010
C  11.31950   1.40681  -0.47855
C  11.78522   0.70463   0.65193
C  12.13870   1.40722   1.82215
C  12.60049   0.70467   2.95402
C  12.95727   1.40756   4.12307
C  13.41561   0.70471   5.25617
C  13.77531   1.40783   6.42418
C  14.23062   0.70474   7.55836
C  14.59291   1.40807   8.72545
C  15.04552   0.70477   9.86058
C  15.41014   1.40827  11.02685
C  15.86033   0.70479  12.16284
C  16.22705   1.40843  13.32836
C  16.67508   0.70481  14.46512
C  17.04369   1.40858  15.62997
C  17.48975   0.70483  16.76742
C  17.86010   1.40871  17.93166
C  18.30438   0.70485  19.06974
C   1.19270   2.84186 -24.02403
C   2.25433   2.53077 -23.15507
C   2.29639   3.08657 -21.85994
C   3.24595   2.62962 -20.92561
C   3.32339   3.22216 -19.64854
C   4.18661   2.68571 -18.67260
C   4.29679   3.30414 -17.41029
C   5.09464   2.72040 -16.40577
C   5.23327   3.35714 -15.15544
C   5.98088   2.74327 -14.13018
C   6.14381   3.39327 -12.88964
C   6.85198   2.75911 -11.84869
C   7.03563   3.41895 -10.61626
C   7.71218   2.77053  -9.56303
C   7.91357   3.43783  -8.33741
C   8.56431   2.77902  -7.27434
C   8.78098   3.45211  -6.05450
C   9.41028   2.78550  -4.98336
C   9.64023   3.46316  -3.76848
C  10.25147   2.79057  -2.69062
C  10.49303   3.47188  -1.48005
C  11.08887   2.79459  -0.39649
C  11.34066   3.47889   0.81032
C  11.92322   2.79785   1.89876
C  12.18408   3.48459   3.10224
C  12.75507   2.80052   4.19491
C  13.02403   3.48931   5.39544
C  13.58487   2.80273   6.49181
C  13.86109   3.49324   7.68970
C  14.41293   2.80459   8.78933
C  14.69570   3.49656   9.98485
C  15.23955   2.80616  11.08737
C  15.52825   3.49939  12.28075
C  16.06492   2.80751  13.38586
C  16.35902   3.50182  14.57729
C  16.88922   2.80867  15.68474
C  17.18826   3.50391  16.87439
C  17.71260   2.80967  17.98394
C  -1.19270   2.84186 -24.02403
C   0.00000   3.29000 -23.43570
C   0.00000   3.76000 -22.10634
C   1.20437   3.83082 -21.38317
C   1.20768   4.31780 -20.05994
C   2.34735   4.15243 -19.24969
C   2.36341   4.66968 -17.93809
C   3.42610   4.35511 -17.06830
C   3.46102   4.90184 -15.76909
C   4.45261   4.48967 -14.85651
C   4.50866   5.06154 -13.56892
C   5.43894   4.58301 -12.62435
C   5.51615   5.17544 -11.34719
C   6.39457   4.65018 -10.37792
C   6.49190   5.25924  -9.11000
C   7.32657   4.70000  -8.12112
C   7.44256   5.32253  -6.86134
C   8.24016   4.73792  -5.85657
C   8.37323   5.37143  -4.60397
C   9.13918   4.76742  -3.58607
C   9.28780   5.40994  -2.33982
C  10.02653   4.79081  -1.31091
C  10.18928   5.44079  -0.07031
C  10.90440   4.80964   0.96796
C  11.07999   5.46588   2.20352
C  11.77450   4.82503   3.24985
C  11.96175   5.48653   4.48087
C  12.63812   4.83777   5.53420
C  12.83603   5.50374   6.76115
C  13.49632   4.84842   7.82061
C  13.70396   5.51822   9.04386
C  14.34993   4.85742  10.10875
C  14.56648   5.53052  11.32863
C  15.19962   4.86509  12.39835
C  15.42437   5.54105  13.61516
C  16.04595   4.87168  14.68920
C  16.27824   5.55014  15.90320
C  16.88935   4.87738  16.98113
C  -2.99044   1.37163 -23.43570
C  -2.25433   2.53077 -23.15507
C  -2.29639   3.08657 -21.85994
C  -1.20437   3.83082 -21.38317
C  -1.20768   4.31780 -20.05994
C   0.00000   4.70000 -19.44762
C   0.00000   5.17000 -18.11826
C   1.21191   5.28308 -17.41029
C   1.21332   5.76274 -16.08439
C   2.38540   5.68372 -15.30683
C   2.39310   6.18322 -13.98829
C   3.51135   5.96705 -13.15852
C   3.52981   6.48866 -11.84869
C   4.59278   6.17313 -10.97866
C   4.62475   6.71585  -9.67768
C   5.63583   6.32692  -8.77584
C   5.68266   6.88856  -7.48338
C   6.64679   6.44433  -6.55586
C   6.70888   7.02248  -5.27135
C   7.63118   6.53578  -4.32274
C   7.70832   7.12818  -3.04556
C   8.59358   6.60827  -2.07936
C   8.68523   7.21291  -0.80889
C   9.53769   6.66664   0.17220
C   9.64315   7.28180   1.43653
C  10.46654   6.71429   2.43035
C  10.58500   7.33851   3.68908
C  11.38252   6.75366   4.69391
C  11.51319   7.38571   5.94751
C  12.28762   6.78655   6.96195
C  12.42970   7.42541   8.21085
C  13.18343   6.81429   9.23374
C  13.33617   7.45908  10.47833
C  14.07126   6.83791  11.50872
C  14.23395   7.48789  12.74933
C  14.95219   6.85816  13.78640
C  15.12418   7.51272  15.02335
C  15.82714   6.87567  16.06641
C   3.60323  -0.70115 -22.35859
C   2.99044  -1.37163 -23.43570
C   2.25433  -2.53077 -23.15507
C   1.19270  -2.84186 -24.02403
C   0.00000  -3.29000 -23.43570
C  -1.19270  -2.84186 -24.02403
C  -2.25433  -2.53077 -23.15507
C  -2.99044  -1.37163 -23.43570
C  -3.60323  -0.70115 -22.35859
C  -3.60323   0.70115 -22.35859
C  -3.85609   1.38526 -21.15213
C  -3.24595   2.62962 -20.92561
C  -3.32339   3.22216 -19.64854
C  -2.34735   4.15243 -19.24969
C  -2.36341   4.66968 -17.93809
C  -1.21191   5.28308 -17.41029
C  -1.21332   5.76274 -16.08439
C   0.00000   6.11000 -15.45954
C   0.00000   6.58000 -14.13018
C   1.21531   6.71810 -13.43115
C   1.21603   7.19432 -12.10400
C   2.40447   7.17158 -11.34719
C   2.40874   7.66164 -10.02510
C   3.55795   7.51550  -9.22244
C   3.56882   8.02232  -7.90672
C   4.67487   7.78083  -7.06701
C   4.69470   8.30485  -5.75815
C   5.75779   7.98893  -4.88803
C   5.78815   8.52938  -3.58607
C   6.81042   8.15464  -2.69062
C   6.85219   8.71022  -1.39537
C   7.83657   8.28844  -0.47855
C   7.89016   8.85769   0.81032
C   8.83979   8.39785   1.74537
C   8.90523   8.97934   3.02821
C   9.82318   8.48834   3.97898
C   9.90029   9.08072   5.25617
C  10.78943   8.56396   6.22061
C  10.87788   9.16603   7.49253
C  11.74082   8.62775   8.46895
C  11.84020   9.23842   9.73595
C  12.67929   8.68203  10.72297
C  12.78914   9.30035  11.98539
C  13.60650   8.72857  12.98182
C  13.72633   9.35371  14.23997
C  14.52382   8.76876  15.24483
C   4.42815  -0.70242 -20.05994
C   3.85609  -1.38526 -21.15213
C   3.24595  -2.62962 -20.92561
C   2.29639  -3.08657 -21.85994
C   1.20437  -3.83082 -21.38317
C   0.00000  -3.76000 -22.10634
C  -1.20437  -3.83082 -21.38317
C  -2.29639  -3.08657 -21.85994
C  -3.24595  -2.62962 -20.92561
C  -3.85609  -1.38526 -21.15213
C  -4.42815  -0.70242 -20.05994
C  -4.42815   0.70242 -20.05994
C  -4.70514   1.39275 -18.86230
C  -4.18661   2.68571 -18.67260
C  -4.29679   3.30414 -17.41029
C  -3.42610   4.35511 -17.06830
C  -3.46102   4.90184 -15.76909
C  -2.38540   5.68372 -15.30683
C  -2.39310   6.18322 -13.98829
C  -1.21531   6.71810 -13.43115
C  -1.21603   7.19432 -12.10400
C   0.00000   7.52000 -11.47146
C   0.00000   7.99000 -10.14210
C   1.21712   8.14463  -9.44895
C   1.21754   8.61895  -8.12112
C   2.41535   8.63560  -7.37864
C   2.41795   9.12010  -6.05450
C   3.58608   9.02576  -5.27135
C   3.59299   9.52326  -3.95205
C   4.72682   9.33935  -3.13496
C   4.73993   9.85089  -1.82109
C   5.83816   9.59426  -0.97535
C   5.85889  10.11981   0.33288
C   6.92204   9.80368   1.20305
C   6.95139  10.34267   2.50564
C   7.98091   9.97748   3.39685
C   8.01950  10.52907   4.69391
C   9.01732  10.12308   5.60340
C   9.06550  10.68629   6.89513
C  10.03371  10.24610   7.82061
C  10.09160  10.81996   9.10725
C  11.03229  10.35089  10.04684
C  11.09986  10.93445  11.32863
C  12.01507  10.44080  12.28075
C  12.09217  11.03318  13.55795
C  12.98380  10.51848  14.52124
C   5.24975  -0.70315 -17.76009
C   4.70514  -1.39275 -18.86230
C   4.18661  -2.68571 -18.67260
C   3.32339  -3.22216 -19.64854
C   2.34735  -4.15243 -19.24969
C   1.20768  -4.31780 -20.05994
C   0.00000  -4.70000 -19.44762
C  -1.20768  -4.31780 -20.05994
C  -2.34735  -4.15243 -19.24969
C  -3.32339  -3.22216 -19.64854
C  -4.18661  -2.68571 -18.67260
C  -4.70514  -1.39275 -18.86230
C  -5.24975  -0.70315 -17.76009
C  -5.24975   0.70315 -17.76009
C  -5.54444   1.39730 -16.56886
C  -5.09464   2.72040 -16.40577
C  -5.23327   3.35714 -15.15544
C  -4.45261   4.48967 -14.85651
C  -4.50866   5.06154 -13.56892
C  -3.51135   5.96705 -13.15852
C  -3.52981   6.48866 -11.84869
C  -2.40447   7.17158 -11.34719
C  -2.40874   7.66164 -10.02510
C  -1.21712   8.14463  -9.44895
C  -1.21754   8.61895  -8.12112
C   0.00000   8.93000  -7.48338
C   0.00000   9.40000  -6.15401
C   1.21820   9.56634  -5.46503
C   1.21846  10.03952  -4.13680
C   2.42213  10.08522  -3.40479
C   2.42383  10.56617  -2.07936
C   3.60431  10.51152  -1.31091
C   3.60897  11.00280   0.01072
C   4.76170  10.86460   0.81032
C   4.77079  11.36744   2.12758
C   5.89378  11.15940   2.95402
C   5.90853  11.67419   4.26661
C   7.00135  11.40750   5.11639
C   7.02271  11.93410   6.42418
C   8.08589  11.61786   7.29438
C   8.11454  12.15584   8.59740
C   9.14914  11.79751   9.48560
C   9.18556  12.34627  10.78392
C  10.19293  11.95197  11.68807
C  10.23739  12.51082  12.98182
C  11.21900  12.08561  13.90020
C   6.06935  -0.70361 -15.45954
C   5.54444  -1.39730 -16.56886
C   5.09464  -2.72040 -16.40577
C   4.29679  -3.30414 -17.41029
C   3.42610  -4.35511 -17.06830
C   2.36341  -4.66968 -17.93809
C   1.21191  -5.28308 -17.41029
C   0.00000  -5.17000 -18.11826
C  -1.21191  -5.28308 -17.41029
C  -2.36341  -4.66968 -17.93809
C  -3.42610  -4.35511 -17.06830
C  -4.29679  -3.30414 -17.41029
C  -5.09464  -2.72040 -16.40577
C  -5.54444  -1.39730 -16.56886
C  -6.06935  -0.70361 -15.45954
C  -6.06935   0.70361 -15.45954
C  -6.37754   1.40026 -14.27316
C  -5.98088   2.74327 -14.13018
C  -6.14381   3.39327 -12.88964
C  -5.43894   4.58301 -12.62435
C  -5.51615   5.17544 -11.34719
C  -4.59278   6.17313 -10.97866
C  -4.62475   6.71585  -9.67768
C  -3.55795   7.51550  -9.22244
C  -3.56882   8.02232  -7.90672
C  -2.41535   8.63560  -7.37864
C  -2.41795   9.12010  -6.05450
C  -1.21820   9.56634  -5.46503
C  -1.21846  10.03952  -4.13680
C   0.00000  10.34000  -3.49529
C   0.00000  10.81000  -2.16593
C   1.21889  10.98508  -1.48005
C   1.21906  11.45752  -0.15155
C   2.42664  11.52548   0.57246
C   2.42780  12.00404   1.89876
C   3.61679  11.98069   2.65573
C   3.62008  12.46763   3.97898
C   4.78620  12.36643   4.76465
C   4.79277  12.86301   6.08430
C   5.93378  12.69529   6.89513
C   5.94464  13.20210   8.21085
C   7.05961  12.97733   9.04386
C   7.07562  13.49450  10.35549
C   8.16447  13.22063  11.20817
C   8.18629  13.74801  12.51565
C   9.24950  13.43169  13.38586
C   6.88766  -0.70392 -13.15852
C   6.37754  -1.40026 -14.27316
C   5.98088  -2.74327 -14.13018
C   5.23327  -3.35714 -15.15544
C   4.45261  -4.48967 -14.85651
C   3.46102  -4.90184 -15.76909
C   2.38540  -5.68372 -15.30683
C   1.21332  -5.76274 -16.08439
C   0.00000  -6.11000 -15.45954
C  -1.21332  -5.76274 -16.08439
C  -2.38540  -5.68372 -15.30683
C  -3.46102  -4.90184 -15.76909
C  -4.45261  -4.48967 -14.85651
C  -5.23327  -3.35714 -15.15544
C  -5.98088  -2.74327 -14.13018
C  -6.37754  -1.40026 -14.27316
C  -6.88766  -0.70392 -13.15852
C  -6.88766   0.70392 -13.15852
C  -7.20647   1.40230 -11.97595
C  -6.85198   2.75911 -11.84869
C  -7.03563   3.41895 -10.61626
C  -6.39457   4.65018 -10.37792
C  -6.49190   5.25924  -9.11000
C  -5.63583   6.32692  -8.77584
C  -5.68266   6.88856  -7.48338
C  -4.67487   7.78083  -7.06701
C  -4.69470   8.30485  -5.75815
C  -3.58608   9.02576  -5.27135
C  -3.59299   9.52326  -3.95205
C  -2.42213  10.08522  -3.40479
C  -2.42383  10.56617  -2.07936
C  -1.21889  10.98508  -1.48005
C  -1.21906  11.45752  -0.15155
C   0.00000  11.75000   0.49279
C   0.00000  12.22000   1.82215
C   1.21936  12.40185   2.50564
C   1.21948  12.87378   3.83431
C   2.42978  12.95934   4.55202
C   2.43062  13.43621   5.87893
C   3.62569  13.43814   6.62671
C   3.62810  13.92193   7.95111
C   4.80406  13.85123   8.72545
C   4.80895  14.34317  10.04684
C   5.96349  14.20930  10.84478
C   5.97170  14.71005  12.16284
C   7.10362  14.52113  12.98182
C   7.70507  -0.70413 -10.85719
C   7.20647  -1.40230 -11.97595
C   6.85198  -2.75911 -11.84869
C   6.14381  -3.39327 -12.88964
C   5.43894  -4.58301 -12.62435
C   4.50866  -5.06154 -13.56892
C   3.51135  -5.96705 -13.15852
C   2.39310  -6.18322 -13.98829
C   1.21531  -6.71810 -13.43115
C   0.00000  -6.58000 -14.13018
C  -1.21531  -6.71810 -13.43115
C  -2.39310  -6.18322 -13.98829
C  -3.51135  -5.96705 -13.15852
C  -4.50866  -5.06154 -13.56892
C  -5.43894  -4.58301 -12.62435
C  -6.14381  -3.39327 -12.88964
C  -6.85198  -2.75911 -11.84869
C  -7.20647  -1.40230 -11.97595
C  -7.70507  -0.70413 -10.85719
C  -7.70507   0.70413 -10.85719
C  -8.03246   1.40375  -9.67768
C  -7.71218   2.77053  -9.56303
C  -7.91357   3.43783  -8.33741
C  -7.32657   4.70000  -8.12112
C  -7.44256   5.32253  -6.86134
C  -6.64679   6.44433  -6.55586
C  -6.70888   7.02248  -5.27135
C  -5.75779   7.98893  -4.88803
C  -5.78815   8.52938  -3.58607
C  -4.72682   9.33935  -3.13496
C  -4.73993   9.85089  -1.82109
C  -3.60431  10.51152  -1.31091
C  -3.60897  11.00280   0.01072
C  -2.42664  11.52548   0.57246
C  -2.42780  12.00404   1.89876
C  -1.21936  12.40185   2.50564
C  -1.21948  12.87378   3.83431
C   0.00000  13.16000   4.48087
C   0.00000  13.63000   5.81023
C   1.21969  13.81724   6.49181
C   1.21978  14.28881   7.82061
C   2.43206  14.38863   8.53323
C   2.43268  14.86426   9.86058
C   3.63227  14.88702  10.60082
C   3.63408  15.36846  11.92608
C   4.81747  15.32329  12.69102
C   8.52185  -0.70429  -8.55563
C   8.03246  -1.40375  -9.67768
C   7.71218  -2.77053  -9.56303
C   7.03563  -3.41895 -10.61626
C   6.39457  -4.65018 -10.37792
C   5.51615  -5.17544 -11.34719
C   4.59278  -6.17313 -10.97866
C   3.52981  -6.48866 -11.84869
C   2.40447  -7.17158 -11.34719
C   1.21603  -7.19432 -12.10400
C   0.00000  -7.52000 -11.47146
C  -1.21603  -7.19432 -12.10400
C  -2.40447  -7.17158 -11.34719
C  -3.52981  -6.48866 -11.84869
C  -4.59278  -6.17313 -10.97866
C  -5.51615  -5.17544 -11.34719
C  -6.39457  -4.65018 -10.37792
C  -7.03563  -3.41895 -10.61626
C  -7.71218  -2.77053  -9.56303
C  -8.03246  -1.40375  -9.67768
C  -8.52185  -0.70429  -8.55563
C  -8.52185   0.70429  -8.55563
C  -8.85630   1.40484  -7.37864
C  -8.56431   2.77902  -7.27434
C  -8.78098   3.45211  -6.05450
C  -8.24016   4.73792  -5.85657
C  -8.37323   5.37143  -4.60397
C  -7.63118   6.53578  -4.32274
C  -7.70832   7.12818  -3.04556
C  -6.81042   8.15464  -2.69062
C  -6.85219   8.71022  -1.39537
C  -5.83816   9.59426  -0.97535
C  -5.85889  10.11981   0.33288
C  -4.76170  10.86460   0.81032
C  -4.77079  11.36744   2.12758
C  -3.61679  11.98069   2.65573
C  -3.62008  12.46763   3.97898
C  -2.42978  12.95934   4.55202
C  -2.43062  13.43621   5.87893
C  -1.21969  13.81724   6.49181
C  -1.21978  14.28881   7.82061
C   0.00000  14.57000   8.46895
C   0.00000  15.04000   9.79831
C   1.21994  15.23165  10.47833
C   1.22001  15.70294  11.80723
C   2.43376  15.81455  12.51565
C   9.33815  -0.70441  -6.25390
C   8.85630  -1.40484  -7.37864
C   8.56431  -2.77902  -7.27434
C   7.91357  -3.43783  -8.33741
C   7.32657  -4.70000  -8.12112
C   6.49190  -5.25924  -9.11000
C   5.63583  -6.32692  -8.77584
C   4.62475  -6.71585  -9.67768
C   3.55795  -7.51550  -9.22244
C   2.40874  -7.66164 -10.02510
C   1.21712  -8.14463  -9.44895
C   0.00000  -7.99000 -10.14210
C  -1.21712  -8.14463  -9.44895
C  -2.40874  -7.66164 -10.02510
C  -3.55795  -7.51550  -9.22244
C  -4.62475  -6.71585  -9.67768
C  -5.63583  -6.32692  -8.77584
C  -6.49190  -5.25924  -9.11000
C  -7.32657  -4.70000  -8.12112
C  -7.91357  -3.43783  -8.33741
C  -8.56431  -2.77902  -7.27434
C  -8.85630  -1.40484  -7.37864
C  -9.33815  -0.70441  -6.25390
C  -9.33815   0.70441  -6.25390
C  -9.67852   1.40566  -5.07902
C  -9.41028   2.78550  -4.98336
C  -9.64023   3.46316  -3.76848
C  -9.13918   4.76742  -3.58607
C  -9.28780   5.40994  -2.33982
C  -8.59358   6.60827  -2.07936
C  -8.68523   7.21291  -0.80889
C  -7.83657   8.28844  -0.47855
C  -7.89016   8.85769   0.81032
C  -6.92204   9.80368   1.20305
C  -6.95139  10.34267   2.50564
C  -5.89378  11.15940   2.95402
C  -5.90853  11.67419   4.26661
C  -4.78620  12.36643   4.76465
C  -4.79277  12.86301   6.08430
C  -3.62569  13.43814   6.62671
C  -3.62810  13.92193   7.95111
C  -2.43206  14.38863   8.53323
C  -2.43268  14.86426   9.86058
C  -1.21994  15.23165  10.47833
C  -1.22001  15.70294  11.80723
C   0.00000  15.98000  12.45704
C  10.15410  -0.70450  -3.95205
C   9.67852  -1.40566  -5.07902
C   9.41028  -2.78550  -4.98336
C   8.78098  -3.45211  -6.05450
C   8.24016  -4.73792  -5.85657
C   7.44256  -5.32253  -6.86134
C   6.64679  -6.44433  -6.55586
C   5.68266  -6.88856  -7.48338
C   4.67487  -7.78083  -7.06701
C   3.56882  -8.02232  -7.90672
C   2.41535  -8.63560  -7.37864
C   1.21754  -8.61895  -8.12112
C   0.00000  -8.93000  -7.48338
C  -1.21754  -8.61895  -8.12112
C  -2.41535  -8.63560  -7.37864
C  -3.56882  -8.02232  -7.90672
C  -4.67487  -7.78083  -7.06701
C  -5.68266  -6.88856  -7.48338
C  -6.64679  -6.44433  -6.55586
C  -7.44256  -5.32253  -6.86134
C  -8.24016  -4.73792  -5.85657
C  -8.78098  -3.45211  -6.05450
C  -9.41028  -2.78550  -4.98336
C  -9.67852  -1.40566  -5.07902
C -10.15410  -0.70450  -3.95205
C -10.15410   0.70450  -3.95205
C -10.49950   1.40630  -2.77896
C -10.25147   2.79057  -2.69062
C -10.49303   3.47188  -1.48005
C -10.02653   4.79081  -1.31091
C -10.18928   5.44079  -0.07031
C  -9.53769   6.66664   0.17220
C  -9.64315   7.28180   1.43653
C  -8.83979   8.39785   1.74537
C  -8.90523   8.97934   3.02821
C  -7.98091   9.97748   3.39685
C  -8.01950  10.52907   4.69391
C  -7.00135  11.40750   5.11639
C  -7.02271  11.93410   6.42418
C  -5.93378  12.69529   6.89513
C  -5.94464  13.20210   8.21085
C  -4.80406  13.85123   8.72545
C  -4.80895  14.34317  10.04684
C  -3.63227  14.88702  10.60082
C  -3.63408  15.36846  11.92608
C  -2.43376  15.81455  12.51565
C  10.96977  -0.70457  -1.65010
C  10.49950  -1.40630  -2.77896
C  10.25147  -2.79057  -2.69062
C   9.64023  -3.46316  -3.76848
C   9.13918  -4.76742  -3.58607
C   8.37323  -5.37143  -4.60397
C   7.63118  -6.53578  -4.32274
C   6.70888  -7.02248  -5.27135
C   5.75779  -7.98893  -4.88803
C   4.69470  -8.30485  -5.75815
C   3.58608  -9.02576  -5.27135
C   2.41795  -9.12010  -6.05450
C   1.21820  -9.56634  -5.46503
C   0.00000  -9.40000  -6.15401
C  -1.21820  -9.56634  -5.46503
C  -2.41795  -9.12010  -6.05450
C  -3.58608  -9.02576  -5.27135
C  -4.69470  -8.30485  -5.75815
C  -5.75779  -7.98893  -4.88803
C  -6.70888  -7.02248  -5.27135
C  -7.63118  -6.53578  -4.32274
C  -8.37323  -5.37143  -4.60397
C  -9.13918  -4.76742  -3.58607
C  -9.64023  -3.46316  -3.76848
C -10.25147  -2.79057  -2.69062
C -10.49950  -1.40630  -2.77896
C -10.96977  -0.70457  -1.65010
C -10.96977   0.70457  -1.65010
C -11.31950   1.40681  -0.47855
C -11.08887   2.79459  -0.39649
C -11.34066   3.47889   0.81032
C -10.90440   4.80964   0.96796
C -11.07999   5.46588   2.20352
C -10.46654   6.71429   2.43035
C -10.58500   7.33851   3.68908
C  -9.82318   8.48834   3.97898
C  -9.90029   9.08072   5.25617
C  -9.01732  10.12308   5.60340
C  -9.06550  10.68629   6.89513
C  -8.08589  11.61786   7.29438
C  -8.11454  12.15584   8.59740
C  -7.05961  12.97733   9.04386
C  -7.07562  13.49450  10.35549
C  -5.96349  14.20930  10.84478
C  -5.97170  14.71005  12.16284
C  -4.81747  15.32329  12.69102
C  11.78522  -0.70463   0.65193
C  11.31950  -1.40681  -0.47855
C  11.08887  -2.79459  -0.39649
C  10.49303  -3.47188  -1.48005
C  10.02653  -4.79081  -1.31091
C   9.28780  -5.40994  -2.33982
C   8.59358  -6.60827  -2.07936
C   7.70832  -7.12818  -3.04556
C   6.81042  -8.15464  -2.69062
C   5.78815  -8.52938  -3.58607
C   4.72682  -9.33935  -3.13496
C   3.59299  -9.52326  -3.95205
C   2.42213 -10.08522  -3.40479
C   1.21846 -10.03952  -4.13680
C   0.00000 -10.34000  -3.49529
C  -1.21846 -10.03952  -4.13680
C  -2.42213 -10.08522  -3.40479
C  -3.59299  -9.52326  -3.95205
C  -4.72682  -9.33935  -3.13496
C  -5.78815  -8.52938  -3.58607
C  -6.81042  -8.15464  -2.69062
C  -7.70832  -7.12818  -3.04556
C  -8.59358  -6.60827  -2.07936
C  -9.28780  -5.40994  -2.33982
C -10.02653  -4.79081  -1.31091
C -10.49303  -3.47188  -1.48005
C -11.08887  -2.79459  -0.39649
C -11.31950  -1.40681  -0.47855
C -11.78522  -0.70463   0.65193
C -11.78522   0.70463   0.65193
C -12.13870   1.40722   1.82215
C -11.92322   2.79785   1.89876
C -12.18408   3.48459   3.10224
C -11.77450   4.82503   3.24985
C -11.96175   5.48653   4.48087
C -11.38252   6.75366   4.69391
C -11.51319   7.38571   5.94751
C -10.78943   8.56396   6.22061
C -10.87788   9.16603   7.49253
C -10.03371  10.24610   7.82061
C -10.09160  10.81996   9.10725
C  -9.14914  11.79751   9.48560
C  -9.18556  12.34627  10.78392
C  -8.16447  13.22063  11.20817
C  -8.18629  13.74801  12.51565
C  -7.10362  14.52113  12.98182
C  12.60049  -0.70467   2.95402
C  12.13870  -1.40722   1.82215
C  11.92322  -2.79785   1.89876
C  11.34066  -3.47889   0.81032
C  10.90440  -4.80964   0.96796
C  10.18928  -5.44079  -0.07031
C   9.53769  -6.66664   0.17220
C   8.68523  -7.21291  -0.80889
C   7.83657  -8.28844  -0.47855
C   6.85219  -8.71022  -1.39537
C   5.83816  -9.59426  -0.97535
C   4.73993  -9.85089  -1.82109
C   3.60431 -10.51152  -1.31091
C   2.42383 -10.56617  -2.07936
C   1.21889 -10.98508  -1.48005
C   0.00000 -10.81000  -2.16593
C  -1.21889 -10.98508  -1.48005
C  -2.42383 -10.56617  -2.07936
C  -3.60431 -10.51152  -1.31091
C  -4.73993  -9.85089  -1.82109
C  -5.83816  -9.59426  -0.97535
C  -6.85219  -8.71022  -1.39537
C  -7.83657  -8.28844  -0.47855
C  -8.68523  -7.21291  -0.80889
C  -9.53769  -6.66664   0.17220
C -10.18928  -5.44079  -0.07031
C -10.90440  -4.80964   0.96796
C -11.34066  -3.47889   0.81032
C -11.92322  -2.79785   1.89876
C -12.13870  -1.40722   1.82215
C -12.60049  -0.70467   2.95402
C -12.60049   0.70467   2.95402
C -12.95727   1.40756   4.12307
C -12.75507   2.80052   4.19491
C -13.02403   3.48931   5.39544
C -12.63812   4.83777   5.53420
C -12.83603   5.50374   6.76115
C -12.28762   6.78655   6.96195
C -12.42970   7.42541   8.21085
C -11.74082   8.62775   8.46895
C -11.84020   9.23842   9.73595
C -11.03229  10.35089  10.04684
C -11.09986  10.93445  11.32863
C -10.19293  11.95197  11.68807
C -10.23739  12.51082  12.98182
C  -9.24950  13.43169  13.38586
C  13.41561  -0.70471   5.25617
C  12.95727  -1.40756   4.12307
C  12.75507  -2.80052   4.19491
C  12.18408  -3.48459   3.10224
C  11.77450  -4.82503   3.24985
C  11.07999  -5.46588   2.20352
C  10.46654  -6.71429   2.43035
C   9.64315  -7.28180   1.43653
C   8.83979  -8.39785   1.74537
C   7.89016  -8.85769   0.81032
C   6.92204  -9.80368   1.20305
C   5.85889 -10.11981   0.33288
C   4.76170 -10.86460   0.81032
C   3.60897 -11.00280   0.01072
C   2.42664 -11.52548   0.57246
C   1.21906 -11.45752  -0.15155
C   0.00000 -11.75000   0.49279
C  -1.21906 -11.45752  -0.15155
C  -2.42664 -11.52548   0.57246
C  -3.60897 -11.00280   0.01072
C  -4.76170 -10.86460   0.81032
C  -5.85889 -10.11981   0.33288
C  -6.92204  -9.80368   1.20305
C  -7.89016  -8.85769   0.81032
C  -8.83979  -8.39785   1.74537
C  -9.64315  -7.28180   1.43653
C -10.46654  -6.71429   2.43035
C -11.07999  -5.46588   2.20352
C -11.77450  -4.82503   3.24985
C -12.18408  -3.48459   3.10224
C -12.75507  -2.80052   4.19491
C -12.95727  -1.40756   4.12307
C -13.41561  -0.70471   5.25617
C -13.41561   0.70471   5.25617
C -13.77531   1.40783   6.42418
C -13.58487   2.80273   6.49181
C -13.86109   3.49324   7.68970
C -13.49632   4.84842   7.82061
C -13.70396   5.51822   9.04386
C -13.18343   6.81429   9.23374
C -13.33617   7.45908  10.47833
C -12.67929   8.68203  10.72297
C -12.78914   9.30035  11.98539
C -12.01507  10.44080  12.28075
C -12.09217  11.03318  13.55795
C -11.21900  12.08561  13.90020
C  14.23062  -0.70474   7.55836
C  13.77531  -1.40783   6.42418
C  13.58487  -2.80273   6.49181
C  13.02403  -3.48931   5.39544
C  12.63812  -4.83777   5.53420
C  11.96175  -5.48653   4.48087
C  11.38252  -6.75366   4.69391
C  10.58500  -7.33851   3.68908
C   9.82318  -8.48834   3.97898
C   8.90523  -8.97934   3.02821
C   7.98091  -9.97748   3.39685
C   6.95139 -10.34267   2.50564
C   5.89378 -11.15940   2.95402
C   4.77079 -11.36744   2.12758
C   3.61679 -11.98069   2.65573
C   2.42780 -12.00404   1.89876
C   1.21936 -12.40185   2.50564
C   0.00000 -12.22000   1.82215
C  -1.21936 -12.40185   2.50564
C  -2.42780 -12.00404   1.89876
C  -3.61679 -11.98069   2.65573
C  -4.77079 -11.36744   2.12758
C  -5.89378 -11.15940   2.95402
C  -6.95139 -10.34267   2.50564
C  -7.98091  -9.97748   3.39685
C  -8.90523  -8.97934   3.02821
C  -9.82318  -8.48834   3.97898
C -10.58500  -7.33851   3.68908
C -11.38252  -6.75366   4.69391
C -11.96175  -5.48653   4.48087
C -12.63812  -4.83777   5.53420
C -13.02403  -3.48931   5.39544
C -13.58487  -2.80273   6.49181
C -13.77531  -1.40783   6.42418
C -14.23062  -0.70474   7.55836
C -14.23062   0.70474   7.55836
C -14.59291   1.40807   8.72545
C -14.41293   2.80459   8.78933
C -14.69570   3.49656   9.98485
C -14.34993   4.85742  10.10875
C -14.56648   5.53052  11.32863
C -14.07126   6.83791  11.50872
C -14.23395   7.48789  12.74933
C -13.60650   8.72857  12.98182
C -13.72633   9.35371  14.23997
C -12.98380  10.51848  14.52124
C  15.04552  -0.70477   9.86058
C  14.59291  -1.40807   8.72545
C  14.41293  -2.80459   8.78933
C  13.86109  -3.49324   7.68970
C  13.49632  -4.84842   7.82061
C  12.83603  -5.50374   6.76115
C  12.28762  -6.78655   6.96195
C  11.51319  -7.38571   5.94751
C  10.78943  -8.56396   6.22061
C   9.90029  -9.08072   5.25617
C   9.01732 -10.12308   5.60340
C   8.01950 -10.52907   4.69391
C   7.00135 -11.40750   5.11639
C   5.90853 -11.67419   4.26661
C   4.78620 -12.36643   4.76465
C   3.62008 -12.46763   3.97898
C   2.42978 -12.95934   4.55202
C   1.21948 -12.87378   3.83431
C   0.00000 -13.16000   4.48087
C  -1.21948 -12.87378   3.83431
C  -2.42978 -12.95934   4.55202
C  -3.62008 -12.46763   3.97898
C  -4.78620 -12.36643   4.76465
C  -5.90853 -11.67419   4.26661
C  -7.00135 -11.40750   5.11639
C  -8.01950 -10.52907   4.69391
C  -9.01732 -10.12308   5.60340
C  -9.90029  -9.08072   5.25617
C -10.78943  -8.56396   6.22061
C -11.51319  -7.38571   5.94751
C -12.28762  -6.78655   6.96195
C -12.83603  -5.50374   6.76115
C -13.49632  -4.84842   7.82061
C -13.86109  -3.49324   7.68970
C -14.41293  -2.80459   8.78933
C -14.59291  -1.40807   8.72545
C -15.04552  -0.70477   9.86058
C -15.04552   0.70477   9.86058
C -15.41014   1.40827  11.02685
C -15.23955   2.80616  11.08737
C -15.52825   3.49939  12.28075
C -15.19962   4.86509  12.39835
C -15.42437   5.54105  13.61516
C -14.95219   6.85816  13.78640
C -15.12418   7.51272  15.02335
C -14.52382   8.76876  15.24483
C  15.86033  -0.70479  12.16284
C  15.41014  -1.40827  11.02685
C  15.23955  -2.80616  11.08737
C  14.69570  -3.49656   9.98485
C  14.34993  -4.85742  10.10875
C  13.70396  -5.51822   9.04386
C  13.18343  -6.81429   9.23374
C  12.42970  -7.42541   8.21085
C  11.74082  -8.62775   8.46895
C  10.87788  -9.16603   7.49253
C  10.03371 -10.24610   7.82061
C   9.06550 -10.68629   6.89513
C   8.08589 -11.61786   7.29438
C   7.02271 -11.93410   6.42418
C   5.93378 -12.69529   6.89513
C   4.79277 -12.86301   6.08430
C   3.62569 -13.43814   6.62671
C   2.43062 -13.43621   5.87893
C   1.21969 -13.81724   6.49181
C   0.00000 -13.63000   5.81023
C  -1.21969 -13.81724   6.49181
C  -2.43062 -13.43621   5.87893
C  -3.62569 -13.43814   6.62671
C  -4.79277 -12.86301   6.08430
C  -5.93378 -12.69529   6.89513
C  -7.02271 -11.93410   6.42418
C  -8.08589 -11.61786   7.29438
C  -9.06550 -10.68629   6.89513
C -10.03371 -10.24610   7.82061
C -10.87788  -9.16603   7.49253
C -11.74082  -8.62775   8.46895
C -12.42970  -7.42541   8.21085
C -13.18343  -6.81429   9.23374
C -13.70396  -5.51822   9.04386
C -14.34993  -4.85742  10.10875
C -14.69570  -3.49656   9.98485
C -15.23955  -2.80616  11.08737
C -15.41014  -1.40827  11.02685
C -15.86033  -0.70479  12.16284
C -15.86033   0.70479  12.16284
C -16.22705   1.40843  13.32836
C -16.06492   2.80751  13.38586
C -16.35902   3.50182  14.57729
C -16.04595   4.87168  14.68920
C -16.27824   5.55014  15.90320
C -15.82714   6.87567  16.06641
C  16.67508  -0.70481  14.46512
C  16.22705  -1.40843  13.32836
C  16.06492  -2.80751  13.38586
C  15.52825  -3.49939  12.28075
C  15.19962  -4.86509  12.39835
C  14.56648  -5.53052  11.32863
C  14.07126  -6.83791  11.50872
C  13.33617  -7.45908  10.47833
C  12.67929  -8.68203  10.72297
C  11.84020  -9.23842   9.73595
C  11.03229 -10.35089  10.04684
C  10.09160 -10.81996   9.10725
C   9.14914 -11.79751   9.48560
C   8.11454 -12.15584   8.59740
C   7.05961 -12.97733   9.04386
C   5.94464 -13.20210   8.21085
C   4.80406 -13.85123   8.72545
C   3.62810 -13.92193   7.95111
C   2.43206 -14.38863   8.53323
C   1.21978 -14.28881   7.82061
C   0.00000 -14.57000   8.46895
C  -1.21978 -14.28881   7.82061
C  -2.43206 -14.38863   8.53323
C  -3.62810 -13.92193   7.95111
C  -4.80406 -13.85123   8.72545
C  -5.94464 -13.20210   8.21085
C  -7.05961 -12.97733   9.04386
C  -8.11454 -12.15584   8.59740
C  -9.14914 -11.79751   9.48560
C -10.09160 -10.81996   9.10725
C -11.03229 -10.35089  10.04684
C -11.84020  -9.23842   9.73595
C -12.67929  -8.68203  10.72297
C -13.33617  -7.45908  10.47833
C -14.07126  -6.83791  11.50872
C -14.56648  -5.53052  11.32863
C -15.19962  -4.86509  12.39835
C -15.52825  -3.49939  12.28075
C -16.06492  -2.80751  13.38586
C -16.22705  -1.40843  13.32836
C -16.67508  -0.70481  14.46512
C -16.67508   0.70481  14.46512
C -17.04369   1.40858  15.62997
C -16.88922   2.80867  15.68474
C -17.18826   3.50391  16.87439
C -16.88935   4.87738  16.98113
C  17.48975  -0.70483  16.76742
C  17.04369  -1.40858  15.62997
C  16.88922  -2.80867  15.68474
C  16.35902  -3.50182  14.57729
C  16.04595  -4.87168  14.68920
C  15.42437  -5.54105  13.61516
C  14.95219  -6.85816  13.78640
C  14.23395  -7.48789  12.74933
C  13.60650  -8.72857  12.98182
C  12.78914  -9.30035  11.98539
C  12.01507 -10.44080  12.28075
C  11.09986 -10.93445  11.32863
C  10.19293 -11.95197  11.68807
C   9.18556 -12.34627  10.78392
C   8.16447 -13.22063  11.20817
C   7.07562 -13.49450  10.35549
C   5.96349 -14.20930  10.84478
C   4.80895 -14.34317  10.04684
C   3.63227 -14.88702  10.60082
C   2.43268 -14.86426   9.86058
C   1.21994 -15.23165  10.47833
C   0.00000 -15.04000   9.79831
C  -1.21994 -15.23165  10.47833
C  -2.43268 -14.86426   9.86058
C  -3.63227 -14.88702  10.60082
C  -4.80895 -14.34317  10.04684
C  -5.96349 -14.20930  10.84478
C  -7.07562 -13.49450  10.35549
C  -8.16447 -13.22063  11.20817
C  -9.18556 -12.34627  10.78392
C -10.19293 -11.95197  11.68807
C -11.09986 -10.93445  11.32863
C -12.01507 -10.44080  12.28075
C -12.78914  -9.30035  11.98539
C -13.60650  -8.72857  12.98182
C -14.23395  -7.48789  12.74933
C -14.95219  -6.85816  13.78640
C -15.42437  -5.54105  13.61516
C -16.04595  -4.87168  14.68920
C -16.35902  -3.50182  14.57729
C -16.88922  -2.80867  15.68474
C -17.04369  -1.40858  15.62997
C -17.48975  -0.70483  16.76742
C -17.48975   0.70483  16.76742
C -17.86010   1.40871  17.93166
C -17.71260   2.80967  17.98394
C  18.30438  -0.70485  19.06974
C  17.86010  -1.40871  17.93166
C  17.71260  -2.80967  17.98394
C  17.18826  -3.50391  16.87439
C  16.88935  -4.87738  16.98113
C  16.27824  -5.55014  15.90320
C  15.82714  -6.87567  16.06641
C  15.12418  -7.51272  15.02335
C  14.52382  -8.76876  15.24483
C  13.72633  -9.35371  14.23997
C  12.98380 -10.51848  14.52124
C  12.09217 -11.03318  13.55795
C  11.21900 -12.08561  13.90020
C  10.23739 -12.51082  12.98182
C   9.24950 -13.43169  13.38586
C   8.18629 -13.74801  12.51565
C   7.10362 -14.52113  12.98182
C   5.97170 -14.71005  12.16284
C   4.81747 -15.32329  12.69102
C   3.63408 -15.36846  11.92608
C   2.43376 -15.81455  12.51565
C   1.22001 -15.70294  11.80723
C   0.00000 -15.98000  12.45704
C  -1.22001 -15.70294  11.80723
C  -2.43376 -15.81455  12.51565
C  -3.63408 -15.36846  11.92608
C  -4.81747 -15.32329  12.69102
C  -5.97170 -14.71005  12.16284
C  -7.10362 -14.52113  12.98182
C  -8.18629 -13.74801  12.51565
C  -9.24950 -13.43169  13.38586
C -10.23739 -12.51082  12.98182
C -11.21900 -12.08561  13.90020
C -12.09217 -11.03318  13.55795
C -12.98380 -10.51848  14.52124
C -13.72633  -9.35371  14.23997
C -14.52382  -8.76876  15.24483
C -15.12418  -7.51272  15.02335
C -15.82714  -6.87567  16.06641
C -16.27824  -5.55014  15.90320
C -16.88935  -4.87738  16.98113
C -17.18826  -3.50391  16.87439
C -17.71260  -2.80967  17.98394
C -17.86010  -1.40871  17.93166
C -18.30438  -0.70485  19.06974
C -18.30438   0.70485  19.06974
H  18.59384   1.24917  19.96864
H  17.94896   3.34807  18.90174
H  17.07572   5.40400  17.91710
H  15.96793   7.38530  17.01959
H  14.62463   9.25726  16.21400
H  13.05118  10.98309  15.50495
H  11.26007  12.52529  14.89674
H   9.27146  13.84730  14.39328
H   7.11321  14.91547  13.99795
H   4.82039  15.70093  13.71351
H   2.43413  16.18154  13.54201
H   0.00000  16.34333  13.48470
H  -2.43413  16.18154  13.54201
H  -4.82039  15.70093  13.71351
H  -7.11321  14.91547  13.99795
H  -9.27146  13.84730  14.39328
H -11.26007  12.52529  14.89674
H -13.05118  10.98309  15.50495
H -14.62463   9.25726  16.21400
H -15.96793   7.38530  17.01959
H -17.07572   5.40400  17.91710
H -17.94896   3.34807  18.90174
H -18.59384   1.24917  19.96864
H  18.59384  -1.24917  19.96864
H  17.94896  -3.34807  18.90174
H  17.07572  -5.40400  17.91710
H  15.96793  -7.38530  17.01959
H  14.62463  -9.25726  16.21400
H  13.05118 -10.98309  15.50495
H  11.26007 -12.52529  14.89674
H   9.27146 -13.84730  14.39328
H   7.11321 -14.91547  13.99795
H   4.82039 -15.70093  13.71351
H   2.43413 -16.18154  13.54201
H   0.00000 -16.34333  13.48470
H  -2.43413 -16.18154  13.54201
H  -4.82039 -15.70093  13.71351
H  -7.11321 -14.91547  13.99795
H  -9.27146 -13.84730  14.39328
H -11.26007 -12.52529  14.89674
H -13.05118 -10.98309  15.50495
H -14.62463  -9.25726  16.21400
H -15.96793  -7.38530  17.01959
H -17.07572  -5.40400  17.91710
H -17.94896  -3.34807  18.90174
H -18.59384  -1.24917  19.96864
